<?xml version="1.0" encoding="UTF-8"?>

<!-- generated on 2022-04-28 15:57:04 by Eclipse SUMO netconvert Version 1.12.0
<configuration xmlns:xsi="http://www.w3.org/2001/XMLSchema-instance" xsi:noNamespaceSchemaLocation="http://sumo.dlr.de/xsd/netconvertConfiguration.xsd">

    <input>
        <osm-files value="usp-sc.osm"/>
    </input>

    <projection>
        <proj.utm value="true"/>
    </projection>

    <report>
        <aggregate-warnings value="5"/>
    </report>

</configuration>
-->

<net version="1.9" junctionCornerDetail="5" limitTurnSpeed="5.50" xmlns:xsi="http://www.w3.org/2001/XMLSchema-instance" xsi:noNamespaceSchemaLocation="http://sumo.dlr.de/xsd/net_file.xsd">

    <location netOffset="-199304.41,2438253.24" convBoundary="0.00,0.00,3231.93,3067.30" origBoundary="-47.913668,-22.023473,-47.881075,-21.995782" projParameter="+proj=utm +zone=23 +ellps=WGS84 +datum=WGS84 +units=m +no_defs"/>

    <type id="highway.bridleway" priority="1" numLanes="1" speed="2.78" allow="pedestrian" oneway="1" width="2.00"/>
    <type id="highway.bus_guideway" priority="1" numLanes="1" speed="27.78" allow="bus" oneway="1"/>
    <type id="highway.cycleway" priority="1" numLanes="1" speed="8.33" allow="bicycle" oneway="0" width="1.00"/>
    <type id="highway.footway" priority="1" numLanes="1" speed="2.78" allow="pedestrian" oneway="1" width="2.00"/>
    <type id="highway.ford" priority="1" numLanes="1" speed="2.78" allow="army" oneway="0"/>
    <type id="highway.living_street" priority="2" numLanes="1" speed="2.78" disallow="tram rail_urban rail rail_electric rail_fast ship" oneway="0"/>
    <type id="highway.motorway" priority="14" numLanes="2" speed="39.44" allow="private emergency authority army vip passenger hov taxi bus coach delivery truck trailer motorcycle evehicle custom1 custom2" oneway="1"/>
    <type id="highway.motorway_link" priority="9" numLanes="1" speed="22.22" allow="private emergency authority army vip passenger hov taxi bus coach delivery truck trailer motorcycle evehicle custom1 custom2" oneway="1"/>
    <type id="highway.path" priority="1" numLanes="1" speed="2.78" allow="pedestrian bicycle" oneway="0" width="2.00"/>
    <type id="highway.pedestrian" priority="1" numLanes="1" speed="2.78" allow="pedestrian" oneway="1" width="2.00"/>
    <type id="highway.primary" priority="12" numLanes="2" speed="27.78" disallow="tram rail_urban rail rail_electric rail_fast ship" oneway="0"/>
    <type id="highway.primary_link" priority="7" numLanes="1" speed="22.22" disallow="tram rail_urban rail rail_electric rail_fast ship" oneway="0"/>
    <type id="highway.raceway" priority="15" numLanes="2" speed="83.33" allow="vip" oneway="0"/>
    <type id="highway.residential" priority="3" numLanes="1" speed="13.89" disallow="tram rail_urban rail rail_electric rail_fast ship" oneway="0"/>
    <type id="highway.secondary" priority="11" numLanes="1" speed="27.78" disallow="tram rail_urban rail rail_electric rail_fast ship" oneway="0"/>
    <type id="highway.secondary_link" priority="6" numLanes="1" speed="22.22" disallow="tram rail_urban rail rail_electric rail_fast ship" oneway="0"/>
    <type id="highway.service" priority="1" numLanes="1" speed="5.56" allow="pedestrian delivery bicycle" oneway="0"/>
    <type id="highway.stairs" priority="1" numLanes="1" speed="1.39" allow="pedestrian" oneway="1" width="2.00"/>
    <type id="highway.step" priority="1" numLanes="1" speed="1.39" allow="pedestrian" oneway="1" width="2.00"/>
    <type id="highway.steps" priority="1" numLanes="1" speed="1.39" allow="pedestrian" oneway="1" width="2.00"/>
    <type id="highway.tertiary" priority="10" numLanes="1" speed="22.22" disallow="tram rail_urban rail rail_electric rail_fast ship" oneway="0"/>
    <type id="highway.tertiary_link" priority="5" numLanes="1" speed="22.22" disallow="tram rail_urban rail rail_electric rail_fast ship" oneway="0"/>
    <type id="highway.track" priority="1" numLanes="1" speed="5.56" allow="pedestrian motorcycle moped bicycle" oneway="0"/>
    <type id="highway.trunk" priority="13" numLanes="2" speed="27.78" disallow="pedestrian bicycle tram rail_urban rail rail_electric rail_fast ship" oneway="0"/>
    <type id="highway.trunk_link" priority="8" numLanes="1" speed="22.22" disallow="pedestrian bicycle tram rail_urban rail rail_electric rail_fast ship" oneway="0"/>
    <type id="highway.unclassified" priority="4" numLanes="1" speed="13.89" disallow="tram rail_urban rail rail_electric rail_fast ship" oneway="0"/>
    <type id="highway.unsurfaced" priority="1" numLanes="1" speed="8.33" disallow="tram rail_urban rail rail_electric rail_fast ship" oneway="0"/>
    <type id="railway.highspeed" priority="21" numLanes="1" speed="69.44" allow="rail_fast" oneway="1"/>
    <type id="railway.light_rail" priority="19" numLanes="1" speed="27.78" allow="rail_urban" oneway="1"/>
    <type id="railway.preserved" priority="16" numLanes="1" speed="27.78" allow="rail" oneway="1"/>
    <type id="railway.rail" priority="20" numLanes="1" speed="44.44" allow="rail" oneway="1"/>
    <type id="railway.subway" priority="18" numLanes="1" speed="27.78" allow="rail_urban" oneway="1"/>
    <type id="railway.tram" priority="17" numLanes="1" speed="13.89" allow="tram" oneway="1"/>

    <edge id=":1013811168_0" function="internal">
        <lane id=":1013811168_0_0" index="0" disallow="tram rail_urban rail rail_electric rail_fast ship" speed="3.65" length="4.67" shape="1550.64,2670.15 1549.86,2671.37 1549.07,2671.79 1548.26,2671.40 1547.44,2670.22"/>
    </edge>
    <edge id=":1013811194_0" function="internal">
        <lane id=":1013811194_0_0" index="0" disallow="tram rail_urban rail rail_electric rail_fast ship" speed="9.33" length="13.51" shape="1574.37,2394.24 1571.01,2394.75 1568.17,2396.17 1565.86,2398.48 1564.08,2401.70"/>
    </edge>
    <edge id=":1013811194_1" function="internal">
        <lane id=":1013811194_1_0" index="0" disallow="tram rail_urban rail rail_electric rail_fast ship" speed="13.89" length="17.26" shape="1574.37,2394.24 1557.12,2394.72"/>
    </edge>
    <edge id=":1013811194_2" function="internal">
        <lane id=":1013811194_2_0" index="0" disallow="tram rail_urban rail rail_electric rail_fast ship" speed="7.58" length="4.43" shape="1574.37,2394.24 1569.97,2393.69"/>
    </edge>
    <edge id=":1013811194_3" function="internal">
        <lane id=":1013811194_3_0" index="0" disallow="tram rail_urban rail rail_electric rail_fast ship" speed="3.65" length="1.44" shape="1574.37,2394.24 1573.15,2393.46"/>
    </edge>
    <edge id=":1013811194_16" function="internal">
        <lane id=":1013811194_16_0" index="0" disallow="tram rail_urban rail rail_electric rail_fast ship" speed="7.58" length="11.01" shape="1569.97,2393.69 1567.24,2391.86 1566.16,2388.75 1566.75,2384.36"/>
    </edge>
    <edge id=":1013811194_17" function="internal">
        <lane id=":1013811194_17_0" index="0" disallow="tram rail_urban rail rail_electric rail_fast ship" speed="3.65" length="3.23" shape="1573.15,2393.46 1572.74,2392.66 1573.13,2391.86 1574.31,2391.04"/>
    </edge>
    <edge id=":1013811194_4" function="internal">
        <lane id=":1013811194_4_0" index="0" disallow="tram rail_urban rail rail_electric rail_fast ship" speed="5.97" length="9.09" shape="1569.83,2385.22 1569.48,2387.81 1570.12,2389.64 1571.73,2390.71 1574.31,2391.04"/>
    </edge>
    <edge id=":1013811194_5" function="internal">
        <lane id=":1013811194_5_0" index="0" disallow="tram rail_urban rail rail_electric rail_fast ship" speed="13.89" length="17.45" shape="1569.83,2385.22 1568.63,2389.18 1567.16,2393.53 1565.60,2397.85 1564.08,2401.70"/>
    </edge>
    <edge id=":1013811194_6" function="internal">
        <lane id=":1013811194_6_0" index="0" disallow="tram rail_urban rail rail_electric rail_fast ship" speed="9.93" length="17.09" shape="1569.83,2385.22 1568.07,2389.24 1565.37,2392.15 1561.72,2393.98 1557.12,2394.72"/>
    </edge>
    <edge id=":1013811194_7" function="internal">
        <lane id=":1013811194_7_0" index="0" disallow="tram rail_urban rail rail_electric rail_fast ship" speed="3.65" length="4.67" shape="1569.83,2385.22 1568.73,2386.16 1567.85,2386.33 1567.19,2385.73 1566.75,2384.36"/>
    </edge>
    <edge id=":1013811194_8" function="internal">
        <lane id=":1013811194_8_0" index="0" disallow="tram rail_urban rail rail_electric rail_fast ship" speed="8.73" length="13.03" shape="1557.00,2391.52 1560.54,2390.96 1563.34,2389.58 1565.41,2387.38 1566.75,2384.36"/>
    </edge>
    <edge id=":1013811194_9" function="internal">
        <lane id=":1013811194_9_0" index="0" disallow="tram rail_urban rail rail_electric rail_fast ship" speed="13.89" length="17.32" shape="1557.00,2391.52 1574.31,2391.04"/>
    </edge>
    <edge id=":1013811194_10" function="internal">
        <lane id=":1013811194_10_0" index="0" disallow="tram rail_urban rail rail_electric rail_fast ship" speed="7.46" length="4.77" shape="1557.00,2391.52 1561.75,2391.99"/>
    </edge>
    <edge id=":1013811194_11" function="internal">
        <lane id=":1013811194_11_0" index="0" disallow="tram rail_urban rail rail_electric rail_fast ship" speed="3.65" length="1.44" shape="1557.00,2391.52 1558.23,2392.27"/>
    </edge>
    <edge id=":1013811194_18" function="internal">
        <lane id=":1013811194_18_0" index="0" disallow="tram rail_urban rail rail_electric rail_fast ship" speed="7.46" length="11.42" shape="1561.75,2391.99 1564.51,2393.85 1565.29,2397.08 1564.08,2401.70"/>
    </edge>
    <edge id=":1013811194_19" function="internal">
        <lane id=":1013811194_19_0" index="0" disallow="tram rail_urban rail rail_electric rail_fast ship" speed="3.65" length="3.23" shape="1558.23,2392.27 1558.66,2393.06 1558.29,2393.87 1557.12,2394.72"/>
    </edge>
    <edge id=":1013811194_12" function="internal">
        <lane id=":1013811194_12_0" index="0" disallow="tram rail_urban rail rail_electric rail_fast ship" speed="5.78" length="9.16" shape="1561.13,2400.47 1561.81,2397.86 1561.37,2396.04 1559.80,2394.99 1557.12,2394.72"/>
    </edge>
    <edge id=":1013811194_13" function="internal">
        <lane id=":1013811194_13_0" index="0" disallow="tram rail_urban rail rail_electric rail_fast ship" speed="13.89" length="17.08" shape="1561.13,2400.47 1562.62,2396.68 1564.15,2392.49 1565.57,2388.26 1566.75,2384.36"/>
    </edge>
    <edge id=":1013811194_14" function="internal">
        <lane id=":1013811194_14_0" index="0" disallow="tram rail_urban rail rail_electric rail_fast ship" speed="10.48" length="17.25" shape="1561.13,2400.47 1563.39,2396.41 1566.34,2393.48 1569.98,2391.69 1574.31,2391.04"/>
    </edge>
    <edge id=":1013811194_15" function="internal">
        <lane id=":1013811194_15_0" index="0" disallow="tram rail_urban rail rail_electric rail_fast ship" speed="3.65" length="4.67" shape="1561.13,2400.47 1562.32,2399.67 1563.22,2399.61 1563.80,2400.28 1564.08,2401.70"/>
    </edge>
    <edge id=":1013811249_0" function="internal">
        <lane id=":1013811249_0_0" index="0" disallow="tram rail_urban rail rail_electric rail_fast ship" speed="9.46" length="12.37" shape="1588.24,2253.88 1586.32,2255.43 1584.92,2257.77 1584.05,2260.89 1583.69,2264.81"/>
    </edge>
    <edge id=":1013811249_1" function="internal">
        <lane id=":1013811249_1_0" index="0" disallow="tram rail_urban rail rail_electric rail_fast ship" speed="16.67" length="15.43" shape="1588.24,2253.88 1574.70,2261.23"/>
        <lane id=":1013811249_1_1" index="1" disallow="tram rail_urban rail rail_electric rail_fast ship" speed="16.67" length="15.43" shape="1586.74,2251.05 1573.16,2258.42"/>
    </edge>
    <edge id=":1013811249_3" function="internal">
        <lane id=":1013811249_3_0" index="0" disallow="tram rail_urban rail rail_electric rail_fast ship" speed="5.67" length="9.24" shape="1580.49,2264.73 1580.18,2261.98 1579.12,2260.47 1577.29,2260.22 1574.70,2261.23"/>
    </edge>
    <edge id=":1013811249_4" function="internal">
        <lane id=":1013811249_4_0" index="0" disallow="tram rail_urban rail rail_electric rail_fast ship" speed="3.65" length="4.67" shape="1580.49,2264.73 1581.32,2263.55 1582.13,2263.17 1582.92,2263.59 1583.69,2264.81"/>
    </edge>
    <edge id=":1013881037_0" function="internal">
        <lane id=":1013881037_0_0" index="0" disallow="tram rail_urban rail rail_electric rail_fast ship" speed="6.21" length="9.05" shape="1838.60,2307.96 1838.20,2305.46 1837.09,2303.80 1835.27,2303.01 1832.73,2303.06"/>
    </edge>
    <edge id=":1013881037_1" function="internal">
        <lane id=":1013881037_1_0" index="0" disallow="tram rail_urban rail rail_electric rail_fast ship" speed="8.48" length="14.47" shape="1838.60,2307.96 1839.05,2303.89 1840.53,2300.82 1843.04,2298.73 1846.59,2297.64"/>
    </edge>
    <edge id=":1013881037_2" function="internal">
        <lane id=":1013881037_2_0" index="0" disallow="tram rail_urban rail rail_electric rail_fast ship" speed="3.65" length="4.67" shape="1838.60,2307.96 1839.39,2306.75 1840.18,2306.33 1840.99,2306.72 1841.80,2307.91"/>
    </edge>
    <edge id=":1013881037_3" function="internal">
        <lane id=":1013881037_3_0" index="0" disallow="tram rail_urban rail rail_electric rail_fast ship" speed="7.08" length="9.79" shape="1847.05,2300.81 1844.72,2301.55 1843.07,2302.98 1842.10,2305.10 1841.80,2307.91"/>
    </edge>
    <edge id=":1013881037_4" function="internal">
        <lane id=":1013881037_4_0" index="0" disallow="tram rail_urban rail rail_electric rail_fast ship" speed="13.89" length="14.49" shape="1847.05,2300.81 1832.73,2303.06"/>
    </edge>
    <edge id=":1013881037_5" function="internal">
        <lane id=":1013881037_5_0" index="0" disallow="tram rail_urban rail rail_electric rail_fast ship" speed="3.65" length="1.44" shape="1847.05,2300.81 1845.75,2300.19"/>
    </edge>
    <edge id=":1013881037_9" function="internal">
        <lane id=":1013881037_9_0" index="0" disallow="tram rail_urban rail rail_electric rail_fast ship" speed="3.65" length="3.23" shape="1845.75,2300.19 1845.24,2299.46 1845.51,2298.61 1846.59,2297.64"/>
    </edge>
    <edge id=":1013881037_6" function="internal">
        <lane id=":1013881037_6_0" index="0" disallow="tram rail_urban rail rail_electric rail_fast ship" speed="13.89" length="14.55" shape="1832.21,2299.91 1846.59,2297.64"/>
    </edge>
    <edge id=":1013881037_7" function="internal">
        <lane id=":1013881037_7_0" index="0" disallow="tram rail_urban rail rail_electric rail_fast ship" speed="7.76" length="4.28" shape="1832.21,2299.91 1836.35,2299.82 1836.47,2299.87"/>
    </edge>
    <edge id=":1013881037_8" function="internal">
        <lane id=":1013881037_8_0" index="0" disallow="tram rail_urban rail rail_electric rail_fast ship" speed="3.65" length="1.44" shape="1832.21,2299.91 1833.52,2300.50"/>
    </edge>
    <edge id=":1013881037_10" function="internal">
        <lane id=":1013881037_10_0" index="0" disallow="tram rail_urban rail rail_electric rail_fast ship" speed="7.76" length="10.52" shape="1836.47,2299.87 1839.33,2301.12 1841.15,2303.82 1841.80,2307.91"/>
    </edge>
    <edge id=":1013881037_11" function="internal">
        <lane id=":1013881037_11_0" index="0" disallow="tram rail_urban rail rail_electric rail_fast ship" speed="3.65" length="3.23" shape="1833.52,2300.50 1834.05,2301.22 1833.79,2302.08 1832.73,2303.06"/>
    </edge>
    <edge id=":1013889929_0" function="internal">
        <lane id=":1013889929_0_0" index="0" disallow="tram rail_urban rail rail_electric rail_fast ship" speed="8.36" length="11.21" shape="729.56,2241.08 726.98,2238.80 724.47,2237.46 722.02,2237.05 719.64,2237.56"/>
    </edge>
    <edge id=":1013889929_1" function="internal">
        <lane id=":1013889929_1_0" index="0" disallow="tram rail_urban rail rail_electric rail_fast ship" speed="7.51" length="15.83" shape="729.56,2241.08 726.88,2237.33 726.41,2234.06 728.15,2231.25 732.11,2228.90"/>
    </edge>
    <edge id=":1013889929_2" function="internal">
        <lane id=":1013889929_2_0" index="0" disallow="tram rail_urban rail rail_electric rail_fast ship" speed="3.65" length="4.67" shape="729.56,2241.08 729.31,2239.65 729.61,2238.81 730.47,2238.55 731.88,2238.87"/>
    </edge>
    <edge id=":1013889929_3" function="internal">
        <lane id=":1013889929_3_0" index="0" disallow="tram rail_urban rail rail_electric rail_fast ship" speed="5.86" length="9.12" shape="733.35,2231.85 731.07,2233.20 730.06,2234.82 730.33,2236.71 731.88,2238.87"/>
    </edge>
    <edge id=":1013889929_4" function="internal">
        <lane id=":1013889929_4_0" index="0" disallow="tram rail_urban rail rail_electric rail_fast ship" speed="11.11" length="14.85" shape="733.35,2231.85 719.64,2237.56"/>
    </edge>
    <edge id=":1013889929_5" function="internal">
        <lane id=":1013889929_5_0" index="0" disallow="tram rail_urban rail rail_electric rail_fast ship" speed="3.65" length="4.67" shape="733.35,2231.85 731.93,2231.57 731.25,2230.99 731.31,2230.10 732.11,2228.90"/>
    </edge>
    <edge id=":1013889929_6" function="internal">
        <lane id=":1013889929_6_0" index="0" disallow="tram rail_urban rail rail_electric rail_fast ship" speed="11.11" length="14.84" shape="718.41,2234.60 732.11,2228.90"/>
    </edge>
    <edge id=":1013889929_7" function="internal">
        <lane id=":1013889929_7_0" index="0" disallow="tram rail_urban rail rail_electric rail_fast ship" speed="9.62" length="15.07" shape="718.41,2234.60 721.78,2233.82 725.14,2234.27 728.51,2235.95 731.88,2238.87"/>
    </edge>
    <edge id=":1013889929_8" function="internal">
        <lane id=":1013889929_8_0" index="0" disallow="tram rail_urban rail rail_electric rail_fast ship" speed="3.65" length="4.67" shape="718.41,2234.60 719.82,2234.88 720.50,2235.47 720.44,2236.36 719.64,2237.56"/>
    </edge>
    <edge id=":1013889939_0" function="internal">
        <lane id=":1013889939_0_0" index="0" disallow="tram rail_urban rail rail_electric rail_fast ship" speed="8.23" length="11.03" shape="659.64,2270.83 657.14,2268.60 654.68,2267.28 652.27,2266.89 649.89,2267.42"/>
    </edge>
    <edge id=":1013889939_1" function="internal">
        <lane id=":1013889939_1_0" index="0" disallow="tram rail_urban rail rail_electric rail_fast ship" speed="7.54" length="15.66" shape="659.64,2270.83 657.05,2267.12 656.60,2263.85 658.30,2261.02 662.14,2258.63"/>
    </edge>
    <edge id=":1013889939_2" function="internal">
        <lane id=":1013889939_2_0" index="0" disallow="tram rail_urban rail rail_electric rail_fast ship" speed="3.65" length="4.67" shape="659.64,2270.83 659.41,2269.41 659.72,2268.57 660.58,2268.32 661.98,2268.65"/>
    </edge>
    <edge id=":1013889939_3" function="internal">
        <lane id=":1013889939_3_0" index="0" disallow="tram rail_urban rail rail_electric rail_fast ship" speed="5.90" length="9.10" shape="663.44,2261.56 661.20,2262.95 660.21,2264.59 660.47,2266.50 661.98,2268.65"/>
    </edge>
    <edge id=":1013889939_4" function="internal">
        <lane id=":1013889939_4_0" index="0" disallow="tram rail_urban rail rail_electric rail_fast ship" speed="11.11" length="14.76" shape="663.44,2261.56 649.89,2267.42"/>
    </edge>
    <edge id=":1013889939_5" function="internal">
        <lane id=":1013889939_5_0" index="0" disallow="tram rail_urban rail rail_electric rail_fast ship" speed="3.65" length="4.67" shape="663.44,2261.56 662.02,2261.31 661.33,2260.74 661.37,2259.85 662.14,2258.63"/>
    </edge>
    <edge id=":1013889939_6" function="internal">
        <lane id=":1013889939_6_0" index="0" disallow="tram rail_urban rail rail_electric rail_fast ship" speed="11.11" length="14.71" shape="648.65,2264.47 662.14,2258.63"/>
    </edge>
    <edge id=":1013889939_7" function="internal">
        <lane id=":1013889939_7_0" index="0" disallow="tram rail_urban rail rail_electric rail_fast ship" speed="9.50" length="14.94" shape="648.65,2264.47 652.02,2263.66 655.37,2264.09 658.69,2265.75 661.98,2268.65"/>
    </edge>
    <edge id=":1013889939_8" function="internal">
        <lane id=":1013889939_8_0" index="0" disallow="tram rail_urban rail rail_electric rail_fast ship" speed="3.65" length="4.67" shape="648.65,2264.47 650.06,2264.74 650.74,2265.32 650.68,2266.22 649.89,2267.42"/>
    </edge>
    <edge id=":1013889951_0" function="internal">
        <lane id=":1013889951_0_0" index="0" disallow="tram rail_urban rail rail_electric rail_fast ship" speed="3.65" length="4.67" shape="163.32,2190.57 161.88,2190.44 161.15,2189.93 161.11,2189.03 161.78,2187.76"/>
    </edge>
    <edge id=":1013889983_0" function="internal">
        <lane id=":1013889983_0_0" index="0" disallow="tram rail_urban rail rail_electric rail_fast ship" speed="7.39" length="10.41" shape="739.72,2352.08 742.08,2354.13 744.41,2355.17 746.70,2355.21 748.95,2354.25"/>
    </edge>
    <edge id=":1013889983_1" function="internal">
        <lane id=":1013889983_1_0" index="0" disallow="tram rail_urban rail rail_electric rail_fast ship" speed="3.65" length="4.67" shape="739.72,2352.08 739.96,2353.51 739.64,2354.34 738.79,2354.60 737.38,2354.26"/>
    </edge>
    <edge id=":1013889983_2" function="internal">
        <lane id=":1013889983_2_0" index="0" disallow="tram rail_urban rail rail_electric rail_fast ship" speed="5.96" length="9.09" shape="736.05,2361.47 738.21,2360.01 739.15,2358.32 738.87,2356.40 737.38,2354.26"/>
    </edge>
    <edge id=":1013889983_3" function="internal">
        <lane id=":1013889983_3_0" index="0" disallow="tram rail_urban rail rail_electric rail_fast ship" speed="13.89" length="15.01" shape="736.05,2361.47 740.00,2359.55 742.67,2358.17 745.26,2356.63 748.95,2354.25"/>
        <lane id=":1013889983_3_1" index="1" disallow="tram rail_urban rail rail_electric rail_fast ship" speed="13.89" length="15.01" shape="737.45,2364.35 741.51,2362.37 744.26,2360.95 746.91,2359.37 750.71,2356.93"/>
    </edge>
    <edge id=":1013889988_0" function="internal">
        <lane id=":1013889988_0_0" index="0" disallow="tram rail_urban rail rail_electric rail_fast ship" speed="7.99" length="10.79" shape="671.11,2385.57 673.57,2387.70 676.00,2388.89 678.38,2389.15 680.72,2388.49"/>
    </edge>
    <edge id=":1013889988_1" function="internal">
        <lane id=":1013889988_1_0" index="0" disallow="tram rail_urban rail rail_electric rail_fast ship" speed="3.65" length="4.67" shape="671.11,2385.57 671.36,2386.99 671.06,2387.83 670.21,2388.10 668.80,2387.78"/>
    </edge>
    <edge id=":1013889988_2" function="internal">
        <lane id=":1013889988_2_0" index="0" disallow="tram rail_urban rail rail_electric rail_fast ship" speed="5.95" length="9.09" shape="667.54,2394.99 669.70,2393.51 670.62,2391.81 670.32,2389.91 668.80,2387.78"/>
    </edge>
    <edge id=":1013889988_3" function="internal">
        <lane id=":1013889988_3_0" index="0" disallow="tram rail_urban rail rail_electric rail_fast ship" speed="13.89" length="14.68" shape="667.54,2394.99 680.72,2388.49"/>
        <lane id=":1013889988_3_1" index="1" disallow="tram rail_urban rail rail_electric rail_fast ship" speed="13.89" length="14.68" shape="668.97,2397.86 682.12,2391.36"/>
    </edge>
    <edge id=":1013889994_0" function="internal">
        <lane id=":1013889994_0_0" index="0" disallow="tram rail_urban rail rail_electric rail_fast ship" speed="11.11" length="15.29" shape="946.95,2229.35 935.29,2219.47"/>
    </edge>
    <edge id=":1013889994_1" function="internal">
        <lane id=":1013889994_1_0" index="0" disallow="tram rail_urban rail rail_electric rail_fast ship" speed="6.33" length="9.57" shape="946.95,2229.35 945.47,2227.28 945.17,2225.27 946.07,2223.30 948.14,2221.38"/>
    </edge>
    <edge id=":1013889994_2" function="internal">
        <lane id=":1013889994_2_0" index="0" disallow="tram rail_urban rail rail_electric rail_fast ship" speed="7.05" length="9.74" shape="937.64,2217.30 939.77,2219.12 941.92,2219.97 944.10,2219.85 946.29,2218.77"/>
    </edge>
    <edge id=":1013889994_3" function="internal">
        <lane id=":1013889994_3_0" index="0" disallow="tram rail_urban rail rail_electric rail_fast ship" speed="3.65" length="4.67" shape="937.64,2217.30 937.87,2218.72 937.55,2219.56 936.69,2219.81 935.29,2219.47"/>
    </edge>
    <edge id=":1013889994_4" function="internal">
        <lane id=":1013889994_4_0" index="0" disallow="tram rail_urban rail rail_electric rail_fast ship" speed="6.23" length="9.05" shape="934.45,2227.09 936.30,2225.37 937.05,2223.52 936.72,2221.55 935.29,2219.47"/>
    </edge>
    <edge id=":1013889994_5" function="internal">
        <lane id=":1013889994_5_0" index="0" disallow="tram rail_urban rail rail_electric rail_fast ship" speed="13.89" length="14.49" shape="934.45,2227.09 946.29,2218.77"/>
        <lane id=":1013889994_5_1" index="1" disallow="tram rail_urban rail rail_electric rail_fast ship" speed="13.89" length="14.49" shape="936.28,2229.72 948.14,2221.38"/>
    </edge>
    <edge id=":1013890002_0" function="internal">
        <lane id=":1013890002_0_0" index="0" disallow="tram rail_urban rail rail_electric rail_fast ship" speed="8.38" length="11.13" shape="516.68,2332.20 514.13,2329.96 511.63,2328.64 509.19,2328.24 506.80,2328.74"/>
    </edge>
    <edge id=":1013890002_1" function="internal">
        <lane id=":1013890002_1_0" index="0" disallow="tram rail_urban rail rail_electric rail_fast ship" speed="7.53" length="15.71" shape="516.68,2332.20 514.02,2328.51 513.52,2325.24 515.20,2322.39 519.05,2319.97"/>
    </edge>
    <edge id=":1013890002_2" function="internal">
        <lane id=":1013890002_2_0" index="0" disallow="tram rail_urban rail rail_electric rail_fast ship" speed="3.65" length="4.67" shape="516.68,2332.20 516.43,2330.78 516.73,2329.93 517.58,2329.67 518.99,2329.98"/>
    </edge>
    <edge id=":1013890002_3" function="internal">
        <lane id=":1013890002_3_0" index="0" disallow="tram rail_urban rail rail_electric rail_fast ship" speed="5.89" length="9.11" shape="520.36,2322.89 518.13,2324.29 517.16,2325.95 517.44,2327.84 518.99,2329.98"/>
    </edge>
    <edge id=":1013890002_4" function="internal">
        <lane id=":1013890002_4_0" index="0" disallow="tram rail_urban rail rail_electric rail_fast ship" speed="11.11" length="14.77" shape="520.36,2322.89 506.80,2328.74"/>
    </edge>
    <edge id=":1013890002_5" function="internal">
        <lane id=":1013890002_5_0" index="0" disallow="tram rail_urban rail rail_electric rail_fast ship" speed="3.65" length="4.67" shape="520.36,2322.89 518.94,2322.65 518.25,2322.08 518.28,2321.19 519.05,2319.97"/>
    </edge>
    <edge id=":1013890002_6" function="internal">
        <lane id=":1013890002_6_0" index="0" disallow="tram rail_urban rail rail_electric rail_fast ship" speed="11.11" length="14.66" shape="505.59,2325.78 519.05,2319.97"/>
    </edge>
    <edge id=":1013890002_7" function="internal">
        <lane id=":1013890002_7_0" index="0" disallow="tram rail_urban rail rail_electric rail_fast ship" speed="9.63" length="14.96" shape="505.59,2325.78 508.95,2325.01 512.30,2325.46 515.65,2327.11 518.99,2329.98"/>
    </edge>
    <edge id=":1013890002_8" function="internal">
        <lane id=":1013890002_8_0" index="0" disallow="tram rail_urban rail rail_electric rail_fast ship" speed="3.65" length="4.67" shape="505.59,2325.78 507.01,2326.07 507.68,2326.66 507.61,2327.55 506.80,2328.74"/>
    </edge>
    <edge id=":1013890010_0" function="internal">
        <lane id=":1013890010_0_0" index="0" disallow="tram rail_urban rail rail_electric rail_fast ship" speed="11.11" length="15.57" shape="869.29,2284.18 858.43,2273.02"/>
    </edge>
    <edge id=":1013890010_1" function="internal">
        <lane id=":1013890010_1_0" index="0" disallow="tram rail_urban rail rail_electric rail_fast ship" speed="7.01" length="12.07" shape="869.29,2284.18 867.75,2281.84 867.73,2279.43 869.22,2276.93 872.22,2274.35"/>
    </edge>
    <edge id=":1013890010_2" function="internal">
        <lane id=":1013890010_2_0" index="0" disallow="tram rail_urban rail rail_electric rail_fast ship" speed="3.65" length="4.67" shape="869.29,2284.18 869.01,2282.76 869.29,2281.91 870.14,2281.63 871.55,2281.92"/>
    </edge>
    <edge id=":1013890010_3" function="internal">
        <lane id=":1013890010_3_0" index="0" disallow="tram rail_urban rail rail_electric rail_fast ship" speed="7.43" length="10.72" shape="860.75,2270.81 862.99,2272.60 865.34,2273.34 867.81,2273.05 870.40,2271.73"/>
    </edge>
    <edge id=":1013890010_4" function="internal">
        <lane id=":1013890010_4_0" index="0" disallow="tram rail_urban rail rail_electric rail_fast ship" speed="11.11" length="15.49" shape="860.75,2270.81 871.55,2281.92"/>
    </edge>
    <edge id=":1013890010_5" function="internal">
        <lane id=":1013890010_5_0" index="0" disallow="tram rail_urban rail rail_electric rail_fast ship" speed="3.65" length="4.67" shape="860.75,2270.81 861.00,2272.24 860.69,2273.08 859.84,2273.34 858.43,2273.02"/>
    </edge>
    <edge id=":1013890010_6" function="internal">
        <lane id=":1013890010_6_0" index="0" disallow="tram rail_urban rail rail_electric rail_fast ship" speed="6.21" length="9.05" shape="857.66,2280.62 859.51,2278.89 860.25,2277.04 859.89,2275.08 858.43,2273.02"/>
    </edge>
    <edge id=":1013890010_7" function="internal">
        <lane id=":1013890010_7_0" index="0" disallow="tram rail_urban rail rail_electric rail_fast ship" speed="13.89" length="15.53" shape="857.66,2280.62 870.40,2271.73"/>
        <lane id=":1013890010_7_1" index="1" disallow="tram rail_urban rail rail_electric rail_fast ship" speed="13.89" length="15.53" shape="859.50,2283.25 872.22,2274.35"/>
    </edge>
    <edge id=":1013890010_9" function="internal">
        <lane id=":1013890010_9_0" index="0" disallow="tram rail_urban rail rail_electric rail_fast ship" speed="8.27" length="13.22" shape="859.50,2283.25 863.20,2281.09 866.45,2280.16 869.23,2280.43 871.55,2281.92"/>
    </edge>
    <edge id=":1013890011_0" function="internal">