<?xml version="1.0" encoding="UTF-8"?>

<!-- generated on 2022-04-29 12:14:39 by Eclipse SUMO netconvert Version 1.12.0
<configuration xmlns:xsi="http://www.w3.org/2001/XMLSchema-instance" xsi:noNamespaceSchemaLocation="http://sumo.dlr.de/xsd/netconvertConfiguration.xsd">

    <input>
        <osm-files value="usp-sml.osm"/>
    </input>

    <projection>
        <proj.utm value="true"/>
    </projection>

    <report>
        <aggregate-warnings value="5"/>
    </report>

</configuration>
-->

<net version="1.9" junctionCornerDetail="5" limitTurnSpeed="5.50" xmlns:xsi="http://www.w3.org/2001/XMLSchema-instance" xsi:noNamespaceSchemaLocation="http://sumo.dlr.de/xsd/net_file.xsd">

    <location netOffset="-200537.59,2436441.59" convBoundary="0.00,0.00,290.84,439.39" origBoundary="-47.900388,-22.007011,-47.897576,-22.003045" projParameter="+proj=utm +zone=23 +ellps=WGS84 +datum=WGS84 +units=m +no_defs"/>

    <type id="highway.bridleway" priority="1" numLanes="1" speed="2.78" allow="pedestrian" oneway="1" width="2.00"/>
    <type id="highway.bus_guideway" priority="1" numLanes="1" speed="27.78" allow="bus" oneway="1"/>
    <type id="highway.cycleway" priority="1" numLanes="1" speed="8.33" allow="bicycle" oneway="0" width="1.00"/>
    <type id="highway.footway" priority="1" numLanes="1" speed="2.78" allow="pedestrian" oneway="1" width="2.00"/>
    <type id="highway.ford" priority="1" numLanes="1" speed="2.78" allow="army" oneway="0"/>
    <type id="highway.living_street" priority="2" numLanes="1" speed="2.78" disallow="tram rail_urban rail rail_electric rail_fast ship" oneway="0"/>
    <type id="highway.motorway" priority="14" numLanes="2" speed="39.44" allow="private emergency authority army vip passenger hov taxi bus coach delivery truck trailer motorcycle evehicle custom1 custom2" oneway="1"/>
    <type id="highway.motorway_link" priority="9" numLanes="1" speed="22.22" allow="private emergency authority army vip passenger hov taxi bus coach delivery truck trailer motorcycle evehicle custom1 custom2" oneway="1"/>
    <type id="highway.path" priority="1" numLanes="1" speed="2.78" allow="pedestrian bicycle" oneway="0" width="2.00"/>
    <type id="highway.pedestrian" priority="1" numLanes="1" speed="2.78" allow="pedestrian" oneway="1" width="2.00"/>
    <type id="highway.primary" priority="12" numLanes="2" speed="27.78" disallow="tram rail_urban rail rail_electric rail_fast ship" oneway="0"/>
    <type id="highway.primary_link" priority="7" numLanes="1" speed="22.22" disallow="tram rail_urban rail rail_electric rail_fast ship" oneway="0"/>
    <type id="highway.raceway" priority="15" numLanes="2" speed="83.33" allow="vip" oneway="0"/>
    <type id="highway.residential" priority="3" numLanes="1" speed="13.89" disallow="tram rail_urban rail rail_electric rail_fast ship" oneway="0"/>
    <type id="highway.secondary" priority="11" numLanes="1" speed="27.78" disallow="tram rail_urban rail rail_electric rail_fast ship" oneway="0"/>
    <type id="highway.secondary_link" priority="6" numLanes="1" speed="22.22" disallow="tram rail_urban rail rail_electric rail_fast ship" oneway="0"/>
    <type id="highway.service" priority="1" numLanes="1" speed="5.56" allow="pedestrian delivery bicycle" oneway="0"/>
    <type id="highway.stairs" priority="1" numLanes="1" speed="1.39" allow="pedestrian" oneway="1" width="2.00"/>
    <type id="highway.step" priority="1" numLanes="1" speed="1.39" allow="pedestrian" oneway="1" width="2.00"/>
    <type id="highway.steps" priority="1" numLanes="1" speed="1.39" allow="pedestrian" oneway="1" width="2.00"/>
    <type id="highway.tertiary" priority="10" numLanes="1" speed="22.22" disallow="tram rail_urban rail rail_electric rail_fast ship" oneway="0"/>
    <type id="highway.tertiary_link" priority="5" numLanes="1" speed="22.22" disallow="tram rail_urban rail rail_electric rail_fast ship" oneway="0"/>
    <type id="highway.track" priority="1" numLanes="1" speed="5.56" allow="pedestrian motorcycle moped bicycle" oneway="0"/>
    <type id="highway.trunk" priority="13" numLanes="2" speed="27.78" disallow="pedestrian bicycle tram rail_urban rail rail_electric rail_fast ship" oneway="0"/>
    <type id="highway.trunk_link" priority="8" numLanes="1" speed="22.22" disallow="pedestrian bicycle tram rail_urban rail rail_electric rail_fast ship" oneway="0"/>
    <type id="highway.unclassified" priority="4" numLanes="1" speed="13.89" disallow="tram rail_urban rail rail_electric rail_fast ship" oneway="0"/>
    <type id="highway.unsurfaced" priority="1" numLanes="1" speed="8.33" disallow="tram rail_urban rail rail_electric rail_fast ship" oneway="0"/>
    <type id="railway.highspeed" priority="21" numLanes="1" speed="69.44" allow="rail_fast" oneway="1"/>
    <type id="railway.light_rail" priority="19" numLanes="1" speed="27.78" allow="rail_urban" oneway="1"/>
    <type id="railway.preserved" priority="16" numLanes="1" speed="27.78" allow="rail" oneway="1"/>
    <type id="railway.rail" priority="20" numLanes="1" speed="44.44" allow="rail" oneway="1"/>
    <type id="railway.subway" priority="18" numLanes="1" speed="27.78" allow="rail_urban" oneway="1"/>
    <type id="railway.tram" priority="17" numLanes="1" speed="13.89" allow="tram" oneway="1"/>

    <edge id=":1102761456_0" function="internal">
        <lane id=":1102761456_0_0" index="0" allow="pedestrian delivery bicycle" speed="6.95" length="0.12" shape="61.00,286.16 60.94,286.27"/>
    </edge>
    <edge id=":1102761456_1" function="internal">
        <lane id=":1102761456_1_0" index="0" allow="pedestrian delivery bicycle" speed="6.95" length="0.37" shape="58.01,284.98 58.18,284.65"/>
    </edge>
    <edge id=":4867038531_0" function="internal">
        <lane id=":4867038531_0_0" index="0" allow="pedestrian delivery bicycle" speed="5.04" length="5.00" shape="148.98,176.19 148.69,174.85 148.05,173.92 147.04,173.41 145.67,173.31"/>
    </edge>
    <edge id=":4867038531_1" function="internal">
        <lane id=":4867038531_1_0" index="0" allow="pedestrian delivery bicycle" speed="8.33" length="9.32" shape="148.98,176.19 148.61,166.88"/>
    </edge>
    <edge id=":4867038531_2" function="internal">
        <lane id=":4867038531_2_0" index="0" allow="pedestrian delivery bicycle" speed="3.65" length="4.67" shape="148.98,176.19 149.70,174.94 150.47,174.49 151.29,174.84 152.17,175.98"/>
    </edge>
    <edge id=":4867038531_3" function="internal">
        <lane id=":4867038531_3_0" index="0" allow="pedestrian delivery bicycle" speed="8.33" length="9.15" shape="151.81,166.85 152.17,175.98"/>
    </edge>
    <edge id=":4867038531_4" function="internal">
        <lane id=":4867038531_4_0" index="0" allow="pedestrian delivery bicycle" speed="6.96" length="10.04" shape="151.81,166.85 151.45,169.51 150.31,171.48 148.39,172.74 145.67,173.31"/>
    </edge>
    <edge id=":4867038531_5" function="internal">
        <lane id=":4867038531_5_0" index="0" allow="pedestrian delivery bicycle" speed="3.65" length="4.67" shape="151.81,166.85 151.02,168.06 150.23,168.47 149.42,168.08 148.61,166.88"/>
    </edge>
    <edge id=":4867038531_6" function="internal">
        <lane id=":4867038531_6_0" index="0" allow="pedestrian delivery bicycle" speed="5.17" length="5.09" shape="145.45,170.12 146.85,169.83 147.84,169.20 148.43,168.22 148.61,166.88"/>
    </edge>
    <edge id=":4867038531_7" function="internal">
        <lane id=":4867038531_7_0" index="0" allow="pedestrian delivery bicycle" speed="6.86" length="10.18" shape="145.45,170.12 148.24,170.32 150.28,171.37 151.59,173.25 152.17,175.98"/>
    </edge>
    <edge id=":4867038531_8" function="internal">
        <lane id=":4867038531_8_0" index="0" allow="pedestrian delivery bicycle" speed="3.65" length="4.67" shape="145.45,170.12 146.70,170.83 147.16,171.60 146.82,172.43 145.67,173.31"/>
    </edge>
    <edge id=":4867038539_0" function="internal">
        <lane id=":4867038539_0_0" index="0" allow="pedestrian delivery bicycle" speed="8.33" length="4.11" shape="62.39,189.40 61.39,190.09 60.74,190.62 60.15,191.20 59.30,192.08"/>
    </edge>
    <edge id=":4867038539_1" function="internal">
        <lane id=":4867038539_1_0" index="0" allow="pedestrian delivery bicycle" speed="3.65" length="1.44" shape="62.39,189.40 60.95,189.40"/>
    </edge>
    <edge id=":4867038539_4" function="internal">
        <lane id=":4867038539_4_0" index="0" allow="pedestrian delivery bicycle" speed="3.65" length="3.23" shape="60.95,189.40 60.17,188.96 60.06,188.07 60.62,186.74"/>
    </edge>
    <edge id=":4867038539_2" function="internal">
        <lane id=":4867038539_2_0" index="0" allow="pedestrian delivery bicycle" speed="8.33" length="4.79" shape="57.00,189.86 57.99,188.83 58.69,188.15 59.45,187.54 60.62,186.74"/>
    </edge>
    <edge id=":4867038539_3" function="internal">
        <lane id=":4867038539_3_0" index="0" allow="pedestrian delivery bicycle" speed="3.65" length="1.44" shape="57.00,189.86 58.41,189.55"/>
    </edge>
    <edge id=":4867038539_5" function="internal">
        <lane id=":4867038539_5_0" index="0" allow="pedestrian delivery bicycle" speed="3.65" length="3.23" shape="58.41,189.55 59.27,189.82 59.56,190.67 59.30,192.08"/>
    </edge>
    <edge id=":4867038541_0" function="internal">
        <lane id=":4867038541_0_0" index="0" allow="pedestrian delivery bicycle" speed="8.33" length="10.58" shape="57.35,202.31 54.31,201.84 52.09,201.45 49.88,201.33 46.86,201.68"/>
    </edge>
    <edge id=":4867038541_1" function="internal">
        <lane id=":4867038541_1_0" index="0" allow="pedestrian delivery bicycle" speed="6.80" length="14.91" shape="57.35,202.31 52.99,201.21 51.05,199.22 51.50,196.35 54.36,192.59"/>
    </edge>
    <edge id=":4867038541_2" function="internal">
        <lane id=":4867038541_2_0" index="0" allow="pedestrian delivery bicycle" speed="3.65" length="4.67" shape="57.35,202.31 56.25,201.37 55.95,200.53 56.44,199.78 57.72,199.13"/>
    </edge>
    <edge id=":4867038541_3" function="internal">
        <lane id=":4867038541_3_0" index="0" allow="pedestrian delivery bicycle" speed="4.69" length="6.27" shape="56.43,195.05 55.24,196.63 55.05,197.83 55.88,198.67 57.72,199.13"/>
    </edge>
    <edge id=":4867038541_4" function="internal">
        <lane id=":4867038541_4_0" index="0" allow="pedestrian delivery bicycle" speed="8.33" length="11.92" shape="56.43,195.05 54.16,197.48 52.19,199.39 49.94,200.79 46.86,201.68"/>
    </edge>
    <edge id=":4867038541_5" function="internal">
        <lane id=":4867038541_5_0" index="0" allow="pedestrian delivery bicycle" speed="3.66" length="4.70" shape="56.43,195.05 54.99,195.21 54.17,194.85 53.96,193.98 54.36,192.59"/>
    </edge>
    <edge id=":4867038541_6" function="internal">
        <lane id=":4867038541_6_0" index="0" allow="pedestrian delivery bicycle" speed="8.33" length="10.34" shape="46.30,198.53 49.15,197.74 50.88,196.58 52.33,194.91 54.36,192.59"/>
    </edge>
    <edge id=":4867038541_7" function="internal">
        <lane id=":4867038541_7_0" index="0" allow="pedestrian delivery bicycle" speed="8.33" length="11.51" shape="46.30,198.53 49.46,198.18 52.00,198.28 54.54,198.67 57.72,199.13"/>
    </edge>
    <edge id=":4867038541_8" function="internal">
        <lane id=":4867038541_8_0" index="0" allow="pedestrian delivery bicycle" speed="3.65" length="4.67" shape="46.30,198.53 47.62,199.11 48.16,199.83 47.90,200.69 46.86,201.68"/>
    </edge>
    <edge id=":4867038553_0" function="internal">
        <lane id=":4867038553_0_0" index="0" allow="pedestrian delivery bicycle" speed="3.65" length="4.67" shape="2.71,214.61 2.16,215.95 1.46,216.50 0.59,216.26 -0.43,215.24"/>
    </edge>
    <edge id=":4867038567_0" function="internal">
        <lane id=":4867038567_0_0" index="0" allow="pedestrian delivery bicycle" speed="5.25" length="4.80" shape="74.16,273.19 72.99,272.65 71.88,272.56 70.83,272.93 69.84,273.76"/>
    </edge>
    <edge id=":4867038567_1" function="internal">
        <lane id=":4867038567_1_0" index="0" allow="pedestrian delivery bicycle" speed="8.21" length="8.44" shape="74.16,273.19 72.29,271.73 70.95,270.10 70.15,268.30 69.88,266.33"/>
    </edge>
    <edge id=":4867038567_2" function="internal">
        <lane id=":4867038567_2_0" index="0" allow="pedestrian delivery bicycle" speed="3.65" length="4.67" shape="74.16,273.19 73.58,271.87 73.68,270.98 74.45,270.52 75.89,270.50"/>
    </edge>
    <edge id=":4867038567_3" function="internal">
        <lane id=":4867038567_3_0" index="0" allow="pedestrian delivery bicycle" speed="6.60" length="5.24" shape="73.08,266.32 73.26,267.47 73.79,268.55 74.66,269.56 75.89,270.50"/>
    </edge>
    <edge id=":4867038567_4" function="internal">
        <lane id=":4867038567_4_0" index="0" allow="pedestrian delivery bicycle" speed="8.33" length="8.44" shape="73.08,266.32 72.96,268.77 72.49,270.44 71.50,271.90 69.84,273.76"/>
    </edge>
    <edge id=":4867038567_5" function="internal">
        <lane id=":4867038567_5_0" index="0" allow="pedestrian delivery bicycle" speed="3.65" length="4.67" shape="73.08,266.32 72.28,267.53 71.48,267.93 70.68,267.53 69.88,266.33"/>
    </edge>
    <edge id=":4867038567_6" function="internal">
        <lane id=":4867038567_6_0" index="0" allow="pedestrian delivery bicycle" speed="8.33" length="6.03" shape="67.47,271.60 68.67,270.28 69.41,269.25 69.78,268.07 69.88,266.33"/>
    </edge>
    <edge id=":4867038567_7" function="internal">
        <lane id=":4867038567_7_0" index="0" allow="pedestrian delivery bicycle" speed="7.04" length="9.36" shape="67.47,271.60 69.40,269.99 71.45,269.27 73.61,269.44 75.89,270.50"/>
    </edge>
    <edge id=":4867038567_8" function="internal">
        <lane id=":4867038567_8_0" index="0" allow="pedestrian delivery bicycle" speed="3.65" length="4.67" shape="67.47,271.60 68.87,271.25 69.73,271.50 70.06,272.33 69.84,273.76"/>
    </edge>
    <edge id=":4867038572_0" function="internal">
        <lane id=":4867038572_0_0" index="0" allow="pedestrian delivery bicycle" speed="4.71" length="5.77" shape="152.95,263.11 152.63,261.40 151.90,260.48 150.74,260.35 149.18,261.01"/>
    </edge>
    <edge id=":4867038572_1" function="internal">
        <lane id=":4867038572_1_0" index="0" allow="pedestrian delivery bicycle" speed="8.33" length="11.12" shape="152.95,263.11 152.70,251.99"/>
    </edge>
    <edge id=":4867038572_2" function="internal">
        <lane id=":4867038572_2_0" index="0" allow="pedestrian delivery bicycle" speed="6.95" length="2.21" shape="152.95,263.11 153.10,260.91"/>
    </edge>
    <edge id=":4867038572_3" function="internal">
        <lane id=":4867038572_3_0" index="0" allow="pedestrian delivery bicycle" speed="3.65" length="1.44" shape="152.95,263.11 153.74,261.90"/>
    </edge>
    <edge id=":4867038572_16" function="internal">
        <lane id=":4867038572_16_0" index="0" allow="pedestrian delivery bicycle" speed="6.95" length="10.38" shape="153.10,260.91 153.21,259.24 154.47,256.66 156.71,255.37 159.96,255.37"/>
    </edge>
    <edge id=":4867038572_17" function="internal">
        <lane id=":4867038572_17_0" index="0" allow="pedestrian delivery bicycle" speed="3.65" length="3.23" shape="153.74,261.90 154.54,261.49 155.35,261.89 156.16,263.08"/>
    </edge>
    <edge id=":4867038572_4" function="internal">
        <lane id=":4867038572_4_0" index="0" allow="pedestrian delivery bicycle" speed="5.32" length="6.67" shape="159.42,258.52 157.89,258.58 156.83,259.36 156.26,260.86 156.16,263.08"/>
    </edge>
    <edge id=":4867038572_5" function="internal">
        <lane id=":4867038572_5_0" index="0" allow="pedestrian delivery bicycle" speed="6.95" length="10.90" shape="159.42,258.52 156.34,258.19 154.06,258.49 151.90,259.43 149.18,261.01"/>
    </edge>
    <edge id=":4867038572_6" function="internal">
        <lane id=":4867038572_6_0" index="0" allow="pedestrian delivery bicycle" speed="6.95" length="10.25" shape="159.42,258.52 156.55,257.69 154.47,256.33 153.19,254.43 152.70,251.99"/>
    </edge>
    <edge id=":4867038572_7" function="internal">
        <lane id=":4867038572_7_0" index="0" allow="pedestrian delivery bicycle" speed="3.65" length="4.67" shape="159.42,258.52 158.37,257.53 158.11,256.67 158.64,255.95 159.96,255.37"/>
    </edge>
    <edge id=":4867038572_8" function="internal">
        <lane id=":4867038572_8_0" index="0" allow="pedestrian delivery bicycle" speed="5.78" length="5.83" shape="155.90,251.88 156.19,253.15 156.96,254.15 158.22,254.89 159.96,255.37"/>
    </edge>
    <edge id=":4867038572_9" function="internal">
        <lane id=":4867038572_9_0" index="0" allow="pedestrian delivery bicycle" speed="8.33" length="11.20" shape="155.90,251.88 156.16,263.08"/>
    </edge>
    <edge id=":4867038572_10" function="internal">
        <lane id=":4867038572_10_0" index="0" allow="pedestrian delivery bicycle" speed="8.33" length="1.77" shape="155.90,251.88 155.64,253.64"/>
    </edge>
    <edge id=":4867038572_11" function="internal">
        <lane id=":4867038572_11_0" index="0" allow="pedestrian delivery bicycle" speed="3.65" length="1.44" shape="155.90,251.88 155.14,253.11"/>
    </edge>
    <edge id=":4867038572_18" function="internal">
        <lane id=":4867038572_18_0" index="0" allow="pedestrian delivery bicycle" speed="8.33" length="10.10" shape="155.64,253.64 155.54,254.35 154.30,256.69 152.18,258.91 149.18,261.01"/>
    </edge>
    <edge id=":4867038572_19" function="internal">
        <lane id=":4867038572_19_0" index="0" allow="pedestrian delivery bicycle" speed="3.65" length="3.23" shape="155.14,253.11 154.35,253.54 153.54,253.16 152.70,251.99"/>
    </edge>
    <edge id=":4867038572_12" function="internal">
        <lane id=":4867038572_12_0" index="0" allow="pedestrian delivery bicycle" speed="7.87" length="8.46" shape="147.55,258.26 149.84,256.70 151.46,255.13 152.42,253.57 152.70,251.99"/>
    </edge>
    <edge id=":4867038572_13" function="internal">
        <lane id=":4867038572_13_0" index="0" allow="pedestrian delivery bicycle" speed="6.95" length="13.06" shape="147.55,258.26 150.61,256.61 153.52,255.54 156.55,255.10 159.96,255.37"/>
    </edge>
    <edge id=":4867038572_14" function="internal">
        <lane id=":4867038572_14_0" index="0" allow="pedestrian delivery bicycle" speed="6.70" length="13.19" shape="147.55,258.26 151.12,256.76 153.75,257.07 155.43,259.17 156.16,263.08"/>
    </edge>
    <edge id=":4867038572_15" function="internal">
        <lane id=":4867038572_15_0" index="0" allow="pedestrian delivery bicycle" speed="3.65" length="4.67" shape="147.55,258.26 148.99,258.33 149.74,258.82 149.80,259.71 149.18,261.01"/>
    </edge>
    <edge id=":492963959_0" function="internal">
        <lane id=":492963959_0_0" index="0" allow="pedestrian delivery bicycle" speed="3.65" length="4.67" shape="169.91,439.09 169.35,440.42 168.64,440.96 167.78,440.72 166.77,439.69"/>
    </edge>
    <edge id=":505911011_0" function="internal">
        <lane id=":505911011_0_0" index="0" allow="pedestrian delivery bicycle" speed="8.33" length="4.86" shape="155.71,229.97 155.80,234.83"/>
    </edge>
    <edge id=":505911011_1" function="internal">
        <lane id=":505911011_1_0" index="0" allow="pedestrian delivery bicycle" speed="3.65" length="4.67" shape="155.71,229.97 154.99,231.22 154.22,231.67 153.39,231.32 152.52,230.18"/>
    </edge>
    <edge id=":505911011_2" function="internal">
        <lane id=":505911011_2_0" index="0" allow="pedestrian delivery bicycle" speed="8.33" length="4.59" shape="152.60,234.76 152.52,230.18"/>
    </edge>
    <edge id=":505911011_3" function="internal">
        <lane id=":505911011_3_0" index="0" allow="pedestrian delivery bicycle" speed="3.65" length="4.67" shape="152.60,234.76 153.43,233.58 154.24,233.20 155.03,233.61 155.80,234.83"/>
    </edge>
    <edge id=":505911029_0" function="internal">
        <lane id=":505911029_0_0" index="0" allow="pedestrian delivery bicycle" speed="8.33" length="5.04" shape="157.14,341.79 156.86,336.76"/>
    </edge>
    <edge id=":505911029_1" function="internal">
        <lane id=":505911029_1_0" index="0" allow="pedestrian delivery bicycle" speed="3.65" length="4.67" shape="157.14,341.79 157.87,340.55 158.64,340.10 159.46,340.45 160.33,341.60"/>
    </edge>
    <edge id=":505911029_2" function="internal">
        <lane id=":505911029_2_0" index="0" allow="pedestrian delivery bicycle" speed="8.33" length="5.02" shape="160.05,336.59 160.33,341.60"/>
    </edge>
    <edge id=":505911029_3" function="internal">
        <lane id=":505911029_3_0" index="0" allow="pedestrian delivery bicycle" speed="3.65" length="4.67" shape="160.05,336.59 159.32,337.83 158.54,338.27 157.72,337.92 156.86,336.76"/>
    </edge>
    <edge id=":661572170_0" function="internal">
        <lane id=":661572170_0_0" index="0" allow="pedestrian delivery bicycle" speed="6.95" length="6.92" shape="161.41,409.83 160.95,408.65 159.92,407.58 158.33,406.64 156.17,405.81"/>
    </edge>
    <edge id=":661572170_1" function="internal">
        <lane id=":661572170_1_0" index="0" allow="pedestrian delivery bicycle" speed="8.33" length="9.78" shape="161.41,409.83 160.55,400.09"/>
    </edge>
    <edge id=":661572170_2" function="internal">
        <lane id=":661572170_2_0" index="0" allow="pedestrian delivery bicycle" speed="3.65" length="1.44" shape="161.41,409.83 162.03,408.53"/>
    </edge>
    <edge id=":661572170_9" function="internal">
        <lane id=":661572170_9_0" index="0" allow="pedestrian delivery bicycle" speed="3.65" length="3.23" shape="162.03,408.53 162.77,408.03 163.62,408.31 164.57,409.39"/>
    </edge>
    <edge id=":661572170_3" function="internal">
        <lane id=":661572170_3_0" index="0" allow="pedestrian delivery bicycle" speed="8.33" length="9.52" shape="163.74,399.90 164.57,409.39"/>
    </edge>
    <edge id=":661572170_4" function="internal">
        <lane id=":661572170_4_0" index="0" allow="pedestrian delivery bicycle" speed="6.67" length="3.55" shape="163.74,399.90 163.45,403.44"/>
    </edge>
    <edge id=":661572170_5" function="internal">
        <lane id=":661572170_5_0" index="0" allow="pedestrian delivery bicycle" speed="3.65" length="1.44" shape="163.74,399.90 163.01,401.15"/>
    </edge>
    <edge id=":661572170_10" function="internal">
        <lane id=":661572170_10_0" index="0" allow="pedestrian delivery bicycle" speed="6.67" length="8.65" shape="163.45,403.44 162.09,405.60 159.67,406.39 156.17,405.81"/>
    </edge>
    <edge id=":661572170_11" function="internal">
        <lane id=":661572170_11_0" index="0" allow="pedestrian delivery bicycle" speed="3.65" length="3.23" shape="163.01,401.15 162.24,401.59 161.41,401.24 160.55,400.09"/>
    </edge>
    <edge id=":661572170_6" function="internal">
        <lane id=":661572170_6_0" index="0" allow="pedestrian delivery bicycle" speed="4.75" length="5.51" shape="157.13,402.76 158.71,403.02 159.80,402.66 160.42,401.68 160.55,400.09"/>
    </edge>
    <edge id=":661572170_7" function="internal">
        <lane id=":661572170_7_0" index="0" allow="pedestrian delivery bicycle" speed="6.95" length="10.51" shape="157.13,402.76 160.15,403.97 162.40,405.49 163.87,407.29 164.57,409.39"/>
    </edge>
    <edge id=":661572170_8" function="internal">
        <lane id=":661572170_8_0" index="0" allow="pedestrian delivery bicycle" speed="3.65" length="4.67" shape="157.13,402.76 158.03,403.88 158.17,404.76 157.55,405.41 156.17,405.81"/>
    </edge>
    <edge id=":779155104_0" function="internal">
        <lane id=":779155104_0_0" index="0" allow="pedestrian delivery bicycle" speed="3.65" length="4.67" shape="284.36,12.04 284.98,13.34 284.92,14.23 284.16,14.72 282.72,14.79"/>
    </edge>
    <edge id=":8404452179_0" function="internal">
        <lane id=":8404452179_0_0" index="0" allow="pedestrian delivery bicycle" speed="8.33" length="9.66" shape="152.58,248.55 152.52,238.89"/>
    </edge>
    <edge id=":8404452179_1" function="internal">
        <lane id=":8404452179_1_0" index="0" allow="pedestrian delivery bicycle" speed="6.82" length="3.47" shape="152.58,248.55 152.90,245.69 153.19,245.18"/>
    </edge>
    <edge id=":8404452179_2" function="internal">
        <lane id=":8404452179_2_0" index="0" allow="pedestrian delivery bicycle" speed="3.65" length="1.44" shape="152.58,248.55 153.34,247.33"/>
    </edge>
    <edge id=":8404452179_9" function="internal">
        <lane id=":8404452179_9_0" index="0" allow="pedestrian delivery bicycle" speed="6.82" length="6.95" shape="153.19,245.18 154.06,243.67 156.07,242.48 158.92,242.12"/>
    </edge>
    <edge id=":8404452179_10" function="internal">
        <lane id=":8404452179_10_0" index="0" allow="pedestrian delivery bicycle" speed="3.65" length="3.23" shape="153.34,247.33 154.13,246.90 154.94,247.27 155.78,248.45"/>
    </edge>
    <edge id=":8404452179_3" function="internal">
        <lane id=":8404452179_3_0" index="0" allow="pedestrian delivery bicycle" speed="4.99" length="5.06" shape="158.86,245.32 157.47,245.49 156.50,246.07 155.93,247.06 155.78,248.45"/>
    </edge>
    <edge id=":8404452179_4" function="internal">
        <lane id=":8404452179_4_0" index="0" allow="pedestrian delivery bicycle" speed="6.90" length="10.30" shape="158.86,245.32 156.04,244.87 154.04,243.65 152.86,241.66 152.52,238.89"/>
    </edge>
    <edge id=":8404452179_5" function="internal">
        <lane id=":8404452179_5_0" index="0" allow="pedestrian delivery bicycle" speed="3.65" length="4.67" shape="158.86,245.32 157.68,244.50 157.29,243.69 157.71,242.90 158.92,242.12"/>
    </edge>
    <edge id=":8404452179_6" function="internal">
        <lane id=":8404452179_6_0" index="0" allow="pedestrian delivery bicycle" speed="5.09" length="5.14" shape="155.72,238.96 155.89,240.32 156.49,241.30 157.50,241.90 158.92,242.12"/>
    </edge>
    <edge id=":8404452179_7" function="internal">
        <lane id=":8404452179_7_0" index="0" allow="pedestrian delivery bicycle" speed="8.33" length="9.49" shape="155.72,238.96 155.78,248.45"/>
    </edge>
    <edge id=":8404452179_8" function="internal">
        <lane id=":8404452179_8_0" index="0" allow="pedestrian delivery bicycle" speed="3.65" length="1.44" shape="155.72,238.96 154.89,240.14"/>
    </edge>
    <edge id=":8404452179_11" function="internal">
        <lane id=":8404452179_11_0" index="0" allow="pedestrian delivery bicycle" speed="3.65" length="3.23" shape="154.89,240.14 154.08,240.53 153.29,240.11 152.52,238.89"/>
    </edge>

    <edge id="-40801364#0" from="661572170" to="492963959" priority="1" type="highway.service" shape="162.50,406.12 164.00,416.85 168.34,439.39">
        <lane id="-40801364#0_0" index="0" allow="pedestrian delivery bicycle" speed="8.33" length="30.18" shape="164.57,409.39 165.58,416.58 169.91,439.09"/>
    </edge>
    <edge id="-40801364#1" from="505911029" to="661572170" priority="1" type="highway.service">
        <lane id="-40801364#1_0" index="0" allow="pedestrian delivery bicycle" speed="8.33" length="58.40" shape="160.33,341.60 163.74,399.90"/>
    </edge>
    <edge id="-40801364#2" from="4867038572" to="505911029" priority="1" type="highway.service" shape="154.43,256.04 154.48,261.73 158.57,338.85">
        <lane id="-40801364#2_0" index="0" allow="pedestrian delivery bicycle" speed="8.33" length="73.61" shape="156.16,263.08 160.05,336.59"/>
    </edge>
    <edge id="-40801364#3" from="8404452179" to="4867038572" priority="1" type="highway.service">
        <lane id="-40801364#3_0" index="0" allow="pedestrian delivery bicycle" speed="8.33" length="3.44" shape="155.78,248.45 155.90,251.88"/>
    </edge>
    <edge id="-40801364#4" from="505911011" to="8404452179" priority="1" type="highway.service">
        <lane id="-40801364#4_0" index="0" allow="pedestrian delivery bicycle" speed="8.33" length="4.13" shape="155.80,234.83 155.72,238.96"/>
    </edge>
    <edge id="-40801364#5" from="4867038531" to="505911011" priority="1" type="highway.service">
        <lane id="-40801364#5_0" index="0" allow="pedestrian delivery bicycle" speed="8.33" length="54.10" shape="152.17,175.98 155.71,229.97"/>
    </edge>
    <edge id="-40801364#6" from="779155104" to="4867038531" priority="1" type="highway.service" shape="283.54,13.41 275.28,8.48 264.65,4.57 247.79,3.44 174.10,0.00 167.49,0.72 163.52,4.69 161.08,10.57 149.39,96.06 148.58,118.14 149.87,139.18 150.26,171.39">
        <lane id="-40801364#6_0" index="0" allow="pedestrian delivery bicycle" speed="8.33" length="283.95" shape="282.72,14.79 274.58,9.93 264.32,6.15 247.70,5.03 174.15,1.60 168.22,2.25 164.88,5.59 162.63,10.99 150.98,96.20 150.18,118.12 151.47,139.13 151.81,166.85"/>
    </edge>
    <edge id="-494924005#0" from="4867038539" to="4867038531" priority="1" type="highway.service" shape="59.97,189.09 69.71,182.59 77.75,177.99 85.65,175.33 93.74,174.24 107.02,173.88 124.81,173.15 150.26,171.39">
        <lane id="-494924005#0_0" index="0" allow="pedestrian delivery bicycle" speed="8.33" length="88.35" shape="60.62,186.74 68.86,181.23 77.09,176.52 85.28,173.76 93.61,172.64 106.96,172.28 124.72,171.56 145.45,170.12"/>
    </edge>
    <edge id="-494924005#1" from="4867038541" to="4867038539" priority="1" type="highway.service" shape="48.90,199.70 53.19,196.10 59.97,189.09">
        <lane id="-494924005#1_0" index="0" allow="pedestrian delivery bicycle" speed="8.33" length="3.79" shape="54.36,192.59 57.00,189.86"/>
    </edge>
    <edge id="-494924005#2" from="4867038553" to="4867038541" priority="1" type="highway.service" shape="1.14,214.93 0.56,212.06 0.00,208.05 0.53,204.28 1.73,203.35 5.12,202.87 6.50,202.89 11.53,202.76 18.05,201.38 23.72,200.86 32.33,200.47 41.73,200.97 48.90,199.70">
        <lane id="-494924005#2_0" index="0" allow="pedestrian delivery bicycle" speed="8.33" length="60.09" shape="-0.43,215.24 -1.01,212.33 -1.62,208.05 -0.97,203.41 1.09,201.82 5.02,201.27 6.49,201.29 11.34,201.16 17.81,199.80 23.61,199.26 32.33,198.87 41.63,199.36 46.30,198.53"/>
    </edge>